/*--------------------------------*- C++ -*----------------------------------*\
| =========                 |                                                 |
| \\      /  F ield         | OpenFOAM: The Open Source CFD Toolbox           |
|  \\    /   O peration     | Version:  v1706+                                |
|   \\  /    A nd           | Web:      www.OpenFOAM.org                      |
|    \\/     M anipulation  |                                                 |
\*---------------------------------------------------------------------------*/
/* Butterfly 0.0.5                https://github.com/ladybug-tools/butterfly *\
\*---------------------------------------------------------------------------*/
FoamFile
{
	version		4.0;
	format		ascii;
	class		volScalarField;
	location	"0";
	object		T;
}

dimensions		[0 0 0 1 0 0 0];

internalField		uniform 297.172672;

boundaryField
{

    InnerFloor_3YmTTmFtbDPRDphiCy399_
    {

        type		fixedValue;

        value		uniform 298.708145;

    }

    InnerFloor_14KVjb4bn2zOxEfCwOWKb_
    {

        type		fixedValue;

        value		uniform 298.647144;

    }

    InnerWall_0EYBE3lWP5OQPgfymh45fT
    {

        type		fixedValue;

        value		uniform 294.579839;

    }

    InnerWall_10NUX___CcjBcRRxCQJh2Suf
    {

        type		fixedValue;

        value		uniform 297.445043;

    }

    Roof_174xOdW7H4iw488r9lVn33
    {

        type		externalWallHeatFluxTemperature;

        mode		power;

        qr		qr;

        Q		uniform -1040.907927;

        qrRelaxation		0.003;

        relaxation		1.0;

        kappaMethod		fluidThermo;

        kappa		fluidThermo;

        value		uniform 295.543361;

    }

    InnerDoor_0aGOY_OOT9fva8zh0hPM___t
    {

        type		fixedValue;

        value		uniform 297.622142;

    }

    InnerWall_1r3PHt9bbCOPWBJytLgNNf
    {

        type		fixedValue;

        value		uniform 297.423237;

    }

    InnerWall_0poZkiU6nAzQsz___5j1tEEO
    {

        type		fixedValue;

        value		uniform 297.260156;

    }

    InnerWall_18dtnPzhbDfA93nuFIFIQD
    {

        type		fixedValue;

        value		uniform 297.224177;

    }

    OuterWall_3eJjh1rC9D6u9xQvTJvVV1
    {

        type		externalWallHeatFluxTemperature;

        mode		power;

        qr		qr;

        Q		uniform -301.824776;

        qrRelaxation		0.003;

        relaxation		1.0;

        kappaMethod		fluidThermo;

        kappa		fluidThermo;

        value		uniform 295.4855;

    }

    OuterWall_1Rq56ElXP9mOLKW7Xhapuj
    {

        type		externalWallHeatFluxTemperature;

        mode		power;

        qr		qr;

        Q		uniform -0.312417;

        qrRelaxation		0.003;

        relaxation		1.0;

        kappaMethod		fluidThermo;

        kappa		fluidThermo;

        value		uniform 296.929167;

    }

    Window_3YwbLt4uL17hwYjrGkpnG2
    {

        type		externalWallHeatFluxTemperature;

        mode		power;

        qr		qr;

        Q		uniform 2474.641954;

        qrRelaxation		0.003;

        relaxation		1.0;

        kappaMethod		fluidThermo;

        kappa		fluidThermo;

        value		uniform 300.426808;

    }

    OuterWall_1T2XvptoT41wqhpFAnaD97
    {

        type		externalWallHeatFluxTemperature;

        mode		power;

        qr		qr;

        Q		uniform -314.51335;

        qrRelaxation		0.003;

        relaxation		1.0;

        kappaMethod		fluidThermo;

        kappa		fluidThermo;

        value		uniform 295.385985;

    }

    OuterWall_0An_qycgfB5RACnBVc2erc
    {

        type		externalWallHeatFluxTemperature;

        mode		power;

        qr		qr;

        Q		uniform -0.234709;

        qrRelaxation		0.003;

        relaxation		1.0;

        kappaMethod		fluidThermo;

        kappa		fluidThermo;

        value		uniform 297.026921;

    }

    Window_3tw6evsPf4cOKvenfxmdSF
    {

        type		externalWallHeatFluxTemperature;

        mode		power;

        qr		qr;

        Q		uniform 1167.451981;

        qrRelaxation		0.003;

        relaxation		1.0;

        kappaMethod		fluidThermo;

        kappa		fluidThermo;

        value		uniform 299.357437;

    }

    heater0_surface
    {

        type		externalWallHeatFluxTemperature;

        mode		power;

        qr		qr;

        Q		0.0;

        qrRelaxation		0.003;

        relaxation		1.0;

        kappaMethod		fluidThermo;

        kappa		fluidThermo;

        value		uniform 313.15;

    }

    heater1_surface
    {

        type		externalWallHeatFluxTemperature;

        mode		power;

        qr		qr;

        Q		0.0;

        qrRelaxation		0.003;

        relaxation		1.0;

        kappaMethod		fluidThermo;

        kappa		fluidThermo;

        value		uniform 313.15;

    }

    inlet_0_diffuser
    {

        type		zeroGradient;

    }

    inlet_0_source_sink
    {

        type		fixedValue;

        value		uniform 293.576242;

    }

    inlet_0_box
    {

        type		zeroGradient;

    }

    outlet_overflow_0_source_sink
    {

        type		inletOutlet;

        inletValue		$internalField;

        value		$internalField;

    }

    furniture_Tab0_Chair0
    {

        type		zeroGradient;

    }

    furniture_Desk0
    {

        type		zeroGradient;

    }

    furniture_Tab1_Chair0
    {

        type		zeroGradient;

    }

    furniture_Desk1
    {

        type		zeroGradient;

    }

    furniture_Tab2_Chair0
    {

        type		zeroGradient;

    }

    furniture_Desk2
    {

        type		zeroGradient;

    }

    furniture_Tab3_Chair0
    {

        type		zeroGradient;

    }

    furniture_Desk3
    {

        type		zeroGradient;

    }

    person_Person0_FullBody
    {

        type		externalWallHeatFluxTemperature;

        mode		power;

        qr		qr;

        Q		125.0;

        qrRelaxation		0.003;

        relaxation		1.0;

        kappaMethod		fluidThermo;

        kappa		fluidThermo;

        value		uniform 305.15;

    }

    person_Person1_FullBody
    {

        type		externalWallHeatFluxTemperature;

        mode		power;

        qr		qr;

        Q		125.0;

        qrRelaxation		0.003;

        relaxation		1.0;

        kappaMethod		fluidThermo;

        kappa		fluidThermo;

        value		uniform 305.15;

    }

    person_Person2_FullBody
    {

        type		externalWallHeatFluxTemperature;

        mode		power;

        qr		qr;

        Q		125.0;

        qrRelaxation		0.003;

        relaxation		1.0;

        kappaMethod		fluidThermo;

        kappa		fluidThermo;

        value		uniform 305.15;

    }

    person_Person3_FullBody
    {

        type		externalWallHeatFluxTemperature;

        mode		power;

        qr		qr;

        Q		125.0;

        qrRelaxation		0.003;

        relaxation		1.0;

        kappaMethod		fluidThermo;

        kappa		fluidThermo;

        value		uniform 305.15;

    }

    boundingbox
    {

        type		zeroGradient;

    }

}