/*--------------------------------*- C++ -*----------------------------------*\
| =========                 |                                                 |
| \\      /  F ield         | OpenFOAM: The Open Source CFD Toolbox           |
|  \\    /   O peration     | Version:  v1706+                                |
|   \\  /    A nd           | Web:      www.OpenFOAM.org                      |
|    \\/     M anipulation  |                                                 |
\*---------------------------------------------------------------------------*/
/* Butterfly 0.0.5                https://github.com/ladybug-tools/butterfly *\
\*---------------------------------------------------------------------------*/
FoamFile
{
	version		4.0;
	format		ascii;
	class		volScalarField;
	location	"0";
	object		T;
}

dimensions		[0 0 0 1 0 0 0];

internalField		uniform 293.15;

boundaryField
{

    InnerWall_3S62uZocO66ngdmMaRS2M9
    {

        type		fixedValue;

        value		uniform 293.0585347428089;

    }

    Ceiling_14TeGe_aGDXLMTt8fX0vQP
    {

        type		externalWallHeatFluxTemperature;

        mode		power;

        qr		qr;

        Q		uniform -51.84420429216434;

        qrRelaxation		0.003;

        relaxation		1.0;

        kappaMethod		fluidThermo;

        kappa		fluidThermo;

        value		uniform 292.57564421848235;

    }

    InnerWall_1zvtHpRHFWSVHgO9MXUL0M
    {

        type		fixedValue;

        value		uniform 292.75356800861323;

    }

    InnerDoor_1aGihCk9trZ___gjiWxX___Jdv
    {

        type		fixedValue;

        value		uniform 292.8899140573919;

    }

    GroundFloor_2Sn7uAlFxA___POrax5b6wqo
    {

        type		fixedValue;

        value		uniform 291.9938640841208;

    }

    OuterWall_3XYW9SWB7YBTXnJuv3X___K5
    {

        type		externalWallHeatFluxTemperature;

        mode		power;

        qr		qr;

        Q		uniform -78.4765672480724;

        qrRelaxation		0.003;

        relaxation		1.0;

        kappaMethod		fluidThermo;

        kappa		fluidThermo;

        value		uniform 291.24152200385595;

    }

    OuterWall_3XTF9VnRG___5_FyP6rRZVuw
    {

        type		externalWallHeatFluxTemperature;

        mode		power;

        qr		qr;

        Q		uniform -80.54845294652019;

        qrRelaxation		0.003;

        relaxation		1.0;

        kappaMethod		fluidThermo;

        kappa		fluidThermo;

        value		uniform 291.3313470466562;

    }

    Window_2CVWUzpEdesdJARzpmJYC8
    {

        type		externalWallHeatFluxTemperature;

        mode		power;

        qr		qr;

        Q		uniform 102.96846321594734;

        qrRelaxation		0.003;

        relaxation		1.0;

        kappaMethod		fluidThermo;

        kappa		fluidThermo;

        value		uniform 290.6755261062991;

    }

    Window_2NviMh_1vArANYae7v_22c
    {

        type		externalWallHeatFluxTemperature;

        mode		power;

        qr		qr;

        Q		uniform 102.9334696497188;

        qrRelaxation		0.003;

        relaxation		1.0;

        kappaMethod		fluidThermo;

        kappa		fluidThermo;

        value		uniform 290.6731377839037;

    }

    heater0_surface
    {

        type		externalWallHeatFluxTemperature;

        mode		power;

        qr		qr;

        Q		76.61082309430354;

        qrRelaxation		0.003;

        relaxation		1.0;

        kappaMethod		fluidThermo;

        kappa		fluidThermo;

        value		uniform 313.15;

    }

    inlet_diffuser
    {

        type		zeroGradient;

    }

    inlet_source_sink
    {

        type		fixedValue;

        value		uniform 293.15;

    }

    outlet_diffuser
    {

        type		zeroGradient;

    }

    outlet_source_sink
    {

        type		inletOutlet;

        inletValue		$internalField;

        value		$internalField;

    }

    boundingbox
    {

        type		zeroGradient;

    }

}