/*--------------------------------*- C++ -*----------------------------------*\
| =========                 |                                                 |
| \\      /  F ield         | OpenFOAM: The Open Source CFD Toolbox           |
|  \\    /   O peration     | Version:  v1706+                                |
|   \\  /    A nd           | Web:      www.OpenFOAM.org                      |
|    \\/     M anipulation  |                                                 |
\*---------------------------------------------------------------------------*/
/* Butterfly 0.0.5                https://github.com/ladybug-tools/butterfly *\
\*---------------------------------------------------------------------------*/
FoamFile
{
	version		4.0;
	format		ascii;
	class		dictionary;
	location	"system";
	object		blockMeshDict;
}

convertToMeters 1.0000;

vertices
(
	(62.963795 7.025019 3.8)
	(69.975045 7.025019 3.8)
	(69.975045 12.727519 3.8)
	(62.963795 12.727519 3.8)
	(62.963795 7.025019 7.5)
	(69.975045 7.025019 7.5)
	(69.975045 12.727519 7.5)
	(62.963795 12.727519 7.5)
);

blocks
(
hex (0 1 2 3 4 5 6 7) (70 57 37) 
simpleGrading (
	1.0
	1.0
	1.0
	)
);

edges
(
);

boundary
(   boundingbox
   {
       type wall;
       faces
       (       
	(0 3 2 1)
	(4 5 6 7)
	(1 2 6 5)
	(3 0 4 7)
	(0 1 5 4)
	(2 3 7 6)
       );
   }
);

mergePatchPair
(
);
