/*--------------------------------*- C++ -*----------------------------------*\
| =========                 |                                                 |
| \\      /  F ield         | OpenFOAM: The Open Source CFD Toolbox           |
|  \\    /   O peration     | Version:  v1706+                                |
|   \\  /    A nd           | Web:      www.OpenFOAM.org                      |
|    \\/     M anipulation  |                                                 |
\*---------------------------------------------------------------------------*/
/* Butterfly 0.0.5                https://github.com/ladybug-tools/butterfly *\
\*---------------------------------------------------------------------------*/
FoamFile
{
	version		4.0;
	format		ascii;
	class		dictionary;
	location	"system";
	object		snappyHexMeshDict;
}

castellatedMesh		true;

snap		true;

addLayers		false;

geometry
{

    space_3hiy47ppf5B8MyZqbpTfpc.stl
    {

        type		triSurfaceMesh;

        name		space_3hiy47ppf5B8MyZqbpTfpc;

        regions
        {

            InnerFloor_3YmTTmFtbDPRDphiCy399_
            {

                name		InnerFloor_3YmTTmFtbDPRDphiCy399_;

            }

            InnerFloor_14KVjb4bn2zOxEfCwOWKb_
            {

                name		InnerFloor_14KVjb4bn2zOxEfCwOWKb_;

            }

            InnerWall_0EYBE3lWP5OQPgfymh45fT
            {

                name		InnerWall_0EYBE3lWP5OQPgfymh45fT;

            }

            InnerWall_10NUX___CcjBcRRxCQJh2Suf
            {

                name		InnerWall_10NUX___CcjBcRRxCQJh2Suf;

            }

            Roof_174xOdW7H4iw488r9lVn33
            {

                name		Roof_174xOdW7H4iw488r9lVn33;

            }

            InnerDoor_0aGOY_OOT9fva8zh0hPM___t
            {

                name		InnerDoor_0aGOY_OOT9fva8zh0hPM___t;

            }

            InnerWall_1r3PHt9bbCOPWBJytLgNNf
            {

                name		InnerWall_1r3PHt9bbCOPWBJytLgNNf;

            }

            InnerWall_0poZkiU6nAzQsz___5j1tEEO
            {

                name		InnerWall_0poZkiU6nAzQsz___5j1tEEO;

            }

            InnerWall_18dtnPzhbDfA93nuFIFIQD
            {

                name		InnerWall_18dtnPzhbDfA93nuFIFIQD;

            }

            OuterWall_3eJjh1rC9D6u9xQvTJvVV1
            {

                name		OuterWall_3eJjh1rC9D6u9xQvTJvVV1;

            }

            OuterWall_1Rq56ElXP9mOLKW7Xhapuj
            {

                name		OuterWall_1Rq56ElXP9mOLKW7Xhapuj;

            }

            Window_3YwbLt4uL17hwYjrGkpnG2
            {

                name		Window_3YwbLt4uL17hwYjrGkpnG2;

            }

            OuterWall_1T2XvptoT41wqhpFAnaD97
            {

                name		OuterWall_1T2XvptoT41wqhpFAnaD97;

            }

            OuterWall_0An_qycgfB5RACnBVc2erc
            {

                name		OuterWall_0An_qycgfB5RACnBVc2erc;

            }

            Window_3tw6evsPf4cOKvenfxmdSF
            {

                name		Window_3tw6evsPf4cOKvenfxmdSF;

            }

        }

    }

    heater0_surface.stl
    {

        type		triSurfaceMesh;

        name		heater0_surface;

        regions
        {

            heater0_surface
            {

                name		heater0_surface;

            }

        }

    }

    heater0_porous_media
    {

        type		searchableBox;

        min		(68.76595450859563 7.21753392881988 2.919999801060966);

        max		(70.82595490723662 10.307534326054219 5.60000020534058);

    }

    heater1_surface.stl
    {

        type		triSurfaceMesh;

        name		heater1_surface;

        regions
        {

            heater1_surface
            {

                name		heater1_surface;

            }

        }

    }

    heater1_porous_media
    {

        type		searchableBox;

        min		(64.5099545411159 6.1843402906741 2.9199998010609667);

        max		(68.39995490506699 8.244340693856987 5.600000205340581);

    }

    inlet_diffuser.stl
    {

        type		triSurfaceMesh;

        name		inlet_diffuser;

        regions
        {

            inlet_diffuser
            {

                name		inlet_diffuser;

            }

        }

    }

    inlet_source_sink.stl
    {

        type		triSurfaceMesh;

        name		inlet_source_sink;

        regions
        {

            inlet_source_sink
            {

                name		inlet_source_sink;

            }

        }

    }

    inlet_box.stl
    {

        type		triSurfaceMesh;

        name		inlet_box;

        regions
        {

            inlet_box
            {

                name		inlet_box;

            }

        }

    }

    inlet_refinement_small
    {

        type		searchableBox;

        min		(64.01660754493307 9.62626881312869 6.279999900000001);

        max		(64.51660794493304 10.126269213128689 6.695919300000001);

    }

    inlet_refinement_large
    {

        type		searchableBox;

        min		(63.91660754493306 9.52626881312869 6.1799999);

        max		(64.61660794493305 10.226269213128688 6.795919300000001);

    }

    outlet_diffuser.stl
    {

        type		triSurfaceMesh;

        name		outlet_diffuser;

        regions
        {

            outlet_diffuser
            {

                name		outlet_diffuser;

            }

        }

    }

    outlet_source_sink.stl
    {

        type		triSurfaceMesh;

        name		outlet_source_sink;

        regions
        {

            outlet_source_sink
            {

                name		outlet_source_sink;

            }

        }

    }

    outlet_box.stl
    {

        type		triSurfaceMesh;

        name		outlet_box;

        regions
        {

            outlet_box
            {

                name		outlet_box;

            }

        }

    }

    outlet_refinement_small
    {

        type		searchableBox;

        min		(64.01660754493307 9.62626881312869 8.2800001);

        max		(64.51660794493304 10.126269213128689 8.695919499999999);

    }

    outlet_refinement_large
    {

        type		searchableBox;

        min		(63.91660754493306 9.52626881312869 8.1800001);

        max		(64.61660794493305 10.226269213128688 8.795919499999998);

    }

    furniture_Tab0_Chair0.stl
    {

        type		triSurfaceMesh;

        name		furniture_Tab0_Chair0;

        regions
        {

            furniture_Tab0_Chair0
            {

                name		furniture_Tab0_Chair0;

            }

        }

    }

    furniture_Desk0.stl
    {

        type		triSurfaceMesh;

        name		furniture_Desk0;

        regions
        {

            furniture_Desk0
            {

                name		furniture_Desk0;

            }

        }

    }

    person_Person0_FullBody.stl
    {

        type		triSurfaceMesh;

        name		person_Person0_FullBody;

        regions
        {

            person_Person0_FullBody
            {

                name		person_Person0_FullBody;

            }

        }

    }

}

castellatedMeshControls
{

    maxLocalCells		1000000;

    maxGlobalCells		3000000;

    minRefinementCells		5;

    maxLoadUnbalance		0.10;

    nCellsBetweenLevels		3;

    features		();

    refinementSurfaces
    {

        space_3hiy47ppf5B8MyZqbpTfpc
        {

            level		(1 2);

            regions
            {

                InnerFloor_3YmTTmFtbDPRDphiCy399_
                {

                    level		(2 3);

                    patchInfo
                    {

                        type		wall;

                    }

                }

                InnerFloor_14KVjb4bn2zOxEfCwOWKb_
                {

                    level		(2 3);

                    patchInfo
                    {

                        type		wall;

                    }

                }

                InnerWall_0EYBE3lWP5OQPgfymh45fT
                {

                    level		(2 3);

                    patchInfo
                    {

                        type		wall;

                    }

                }

                InnerWall_10NUX___CcjBcRRxCQJh2Suf
                {

                    level		(2 3);

                    patchInfo
                    {

                        type		wall;

                    }

                }

                Roof_174xOdW7H4iw488r9lVn33
                {

                    level		(2 3);

                    patchInfo
                    {

                        type		wall;

                    }

                }

                InnerDoor_0aGOY_OOT9fva8zh0hPM___t
                {

                    level		(2 3);

                    patchInfo
                    {

                        type		wall;

                    }

                }

                InnerWall_1r3PHt9bbCOPWBJytLgNNf
                {

                    level		(2 3);

                    patchInfo
                    {

                        type		wall;

                    }

                }

                InnerWall_0poZkiU6nAzQsz___5j1tEEO
                {

                    level		(2 3);

                    patchInfo
                    {

                        type		wall;

                    }

                }

                InnerWall_18dtnPzhbDfA93nuFIFIQD
                {

                    level		(2 3);

                    patchInfo
                    {

                        type		wall;

                    }

                }

                OuterWall_3eJjh1rC9D6u9xQvTJvVV1
                {

                    level		(2 3);

                    patchInfo
                    {

                        type		wall;

                    }

                }

                OuterWall_1Rq56ElXP9mOLKW7Xhapuj
                {

                    level		(2 3);

                    patchInfo
                    {

                        type		wall;

                    }

                }

                Window_3YwbLt4uL17hwYjrGkpnG2
                {

                    level		(2 3);

                    patchInfo
                    {

                        type		wall;

                    }

                }

                OuterWall_1T2XvptoT41wqhpFAnaD97
                {

                    level		(2 3);

                    patchInfo
                    {

                        type		wall;

                    }

                }

                OuterWall_0An_qycgfB5RACnBVc2erc
                {

                    level		(2 3);

                    patchInfo
                    {

                        type		wall;

                    }

                }

                Window_3tw6evsPf4cOKvenfxmdSF
                {

                    level		(2 3);

                    patchInfo
                    {

                        type		wall;

                    }

                }

            }

        }

        heater0_surface
        {

            level		(1 2);

            regions
            {

                heater0_surface
                {

                    level		(2 3);

                    patchInfo
                    {

                        type		wall;

                    }

                }

            }

        }

        heater1_surface
        {

            level		(1 2);

            regions
            {

                heater1_surface
                {

                    level		(2 3);

                    patchInfo
                    {

                        type		wall;

                    }

                }

            }

        }

        inlet_diffuser
        {

            level		(2 5);

            regions
            {

                inlet_diffuser
                {

                    level		(2 5);

                    patchInfo
                    {

                        type		wall;

                    }

                }

            }

        }

        inlet_source_sink
        {

            level		(1 2);

            regions
            {

                inlet_source_sink
                {

                    level		(2 5);

                    patchInfo
                    {

                        type		inlet;

                    }

                }

            }

        }

        inlet_box
        {

            level		(1 2);

            regions
            {

                inlet_box
                {

                    level		(1 3);

                    patchInfo
                    {

                        type		wall;

                    }

                }

            }

        }

        outlet_diffuser
        {

            level		(2 5);

            regions
            {

                outlet_diffuser
                {

                    level		(2 5);

                    patchInfo
                    {

                        type		wall;

                    }

                }

            }

        }

        outlet_source_sink
        {

            level		(1 2);

            regions
            {

                outlet_source_sink
                {

                    level		(2 5);

                    patchInfo
                    {

                        type		outlet;

                    }

                }

            }

        }

        outlet_box
        {

            level		(1 2);

            regions
            {

                outlet_box
                {

                    level		(1 3);

                    patchInfo
                    {

                        type		wall;

                    }

                }

            }

        }

        furniture_Tab0_Chair0
        {

            level		(1 2);

            regions
            {

                furniture_Tab0_Chair0
                {

                    level		(2 3);

                    patchInfo
                    {

                        type		wall;

                    }

                }

            }

        }

        furniture_Desk0
        {

            level		(1 2);

            regions
            {

                furniture_Desk0
                {

                    level		(2 3);

                    patchInfo
                    {

                        type		wall;

                    }

                }

            }

        }

        person_Person0_FullBody
        {

            level		(1 2);

            regions
            {

                person_Person0_FullBody
                {

                    level		(4 4);

                    patchInfo
                    {

                        type		wall;

                    }

                }

            }

        }

    }

    resolveFeatureAngle		60;

    refinementRegions
    {

        heater0_porous_media
        {

            mode		inside;

            levels		((0 3));

        }

        heater0_surface
        {

            mode		distance;

            levels		((0.05 3) (0.15 2));

        }

        heater1_porous_media
        {

            mode		inside;

            levels		((0 3));

        }

        heater1_surface
        {

            mode		distance;

            levels		((0.05 3) (0.15 2));

        }

        inlet_source_sink
        {

            mode		distance;

            levels		((0.03 5) (0.08 4));

        }

        inlet_diffuser
        {

            mode		distance;

            levels		((0.03 5) (0.08 4));

        }

        outlet_source_sink
        {

            mode		distance;

            levels		((0.03 5) (0.08 4));

        }

        outlet_diffuser
        {

            mode		distance;

            levels		((0.03 5) (0.08 4));

        }

        furniture_Tab0_Chair0
        {

            mode		distance;

            levels		((0.03 3)(0.06 2));

        }

        furniture_Desk0
        {

            mode		distance;

            levels		((0.03 3)(0.06 2));

        }

        person_Person0_FullBody
        {

            mode		distance;

            levels		((0.05 4)(0.1 3));

        }

    }

    locationInMesh		(66.46942029493304 9.876269013128688 5.65);

    allowFreeStandingZoneFaces		true;

    gapMode		mixed;

    gapLevel		(3 0 7);

}

snapControls
{

    nSmoothPatch		5;

    tolerance		5.0;

    nSolveIter		50;

    nRelaxIter		15;

    nFeatureSnapIter		10;

    explicitFeatureSnap		false;

    implicitFeatureSnap		true;

    multiRegionFeatureSnap		false;

}

addLayersControls
{

    relativeSizes		true;

    layers{}

    expansionRatio		1.0;

    finalLayerThickness		0.3;

    minThickness		0.2;

    nGrow		0;

    featureAngle		110;

    nRelaxIter		3;

    nSmoothSurfaceNormals		1;

    nSmoothThickness		10;

    nSmoothNormals		3;

    maxFaceThicknessRatio		0.5;

    maxThicknessToMedialRatio		0.3;

    minMedianAxisAngle		130;

    nBufferCellsNoExtrude		0;

    nLayerIter		50;

    nRelaxedIter		20;

}

meshQualityControls
{

    maxNonOrtho		60;

    maxBoundarySkewness		20;

    maxInternalSkewness		3;

    maxConcave		80;

    minFlatness		0.5;

    minVol		1e-13;

    minTetQuality		1e-15;

    minArea		-1;

    minTwist		0.02;

    minDeterminant		0.001;

    minFaceWeight		0.02;

    minVolRatio		0.01;

    minTriangleTwist		-1;

    nSmoothScale		4;

    errorReduction		0.75;

    relaxed
    {

        maxNonOrtho		75;

    }

}

debug		0;

mergeTolerance		1E-6;